Circuit: * U:\capteur_MOSH_arduino\LTSpice\capteur_arduino.asc

Direct Newton iteration for .op point succeeded.

Date: Mon Apr 13 19:50:55 2026
Total elapsed time: 0.121 seconds.

tnom = 27
temp = 27
method = trap
totiter = 20
traniter = 0
tranpoints = 0
accept = 0
rejected = 0
matrix size = 16
fillins = 5
solver = Normal
Avg thread counts: 6.0/0.0/6.0/2.8
Matrix Compiler1:      42 opcodes
Matrix Compiler2: 1.30 KB object code size
